8GK7 - hbond-opt_ligand
                    3D
 Structure written by MMmdl.
 94 97  0  0  1  0            999 V2000
  134.5440  136.9390  167.9020 N   0  0  0  0  0  0
  145.1030  136.2400  166.9790 N   0  0  0  0  0  0
  131.2600  138.3300  166.8770 C   0  0  0  0  0  0
  130.7540  139.3710  165.9410 C   0  0  0  0  0  0
  132.6370  138.1200  166.9690 C   0  0  0  0  0  0
  133.1490  137.1520  167.8260 C   0  0  0  0  0  0
  135.3260  136.9900  169.0020 C   0  0  0  0  0  0
  137.4580  137.8670  168.0180 C   0  0  0  0  0  0
  141.3870  136.2200  167.2060 C   0  0  0  0  0  0
  142.8650  134.9040  165.7070 C   0  0  0  0  0  0
  146.5510  138.5530  166.9610 C   0  0  0  0  0  0
  146.6580  141.1310  165.9270 C   0  0  0  0  0  0
  146.6860  142.5250  165.3470 C   0  0  0  0  0  0
  147.2180  143.5960  166.2990 C   0  0  0  0  0  0
  147.2740  146.0520  166.8710 C   0  0  0  0  0  0
  145.9030  139.5840  167.6180 C   0  0  0  0  0  0
  142.2590  137.7780  168.8120 C   0  0  0  0  0  0
  128.9810  137.7610  167.5760 N   0  0  0  0  0  0
  126.1420  134.5880  165.6250 C   0  0  0  0  0  0
  126.6930  137.8040  168.4570 O   0  0  0  0  0  0
  126.4270  135.6680  166.4400 C   0  0  0  0  0  0
  139.7780  137.4570  168.6660 C   0  0  0  0  0  0
  141.1710  137.1500  168.2190 C   0  0  0  0  0  0
  142.6820  135.9120  166.7880 C   0  0  0  0  0  0
  143.7790  136.5560  167.3990 C   0  0  0  0  0  0
  147.2600  138.7970  165.7970 C   0  0  0  0  0  0
  147.3080  140.0830  165.2910 C   0  0  0  0  0  0
  127.4070  135.5460  167.4090 C   0  0  0  0  0  0
  146.9110  145.0080  165.8430 C   0  0  0  0  0  0
  145.9620  140.8630  167.0960 C   0  0  0  0  0  0
  143.5490  137.4880  168.4100 C   0  0  0  0  0  0
  132.2850  136.3890  168.5990 C   0  0  0  0  0  0
  130.3880  137.5470  167.6620 C   0  0  0  0  0  0
  130.9180  136.5820  168.5170 C   0  0  0  0  0  0
  128.0840  134.3510  167.5770 C   0  0  0  0  0  0
  127.7850  133.2810  166.7520 C   0  0  0  0  0  0
  126.8190  133.3850  165.7620 C   0  0  0  0  0  0
  126.5330  132.2340  164.8260 C   0  0  0  0  0  0
  127.4330  131.0050  164.9690 C   0  0  0  0  0  0
  127.0480  130.0970  166.1160 C   0  0  0  0  0  0
  127.8440  128.8110  166.1420 C   0  0  0  0  0  0
  136.7870  136.7180  168.7400 C   0  0  0  0  0  0
  138.8520  137.5800  167.7120 N   0  0  0  0  0  0
  128.4150  136.4610  169.6150 O   0  0  0  0  0  0
  129.8670  140.1530  166.2560 O   0  0  0  0  0  0
  131.3320  139.3760  164.7700 O   0  5  0  0  0  0
  134.9070  137.2360  170.1290 O   0  0  0  0  0  0
  139.5130  137.5830  169.8590 O   0  0  0  0  0  0
  143.7970  134.1100  165.7120 O   0  0  0  0  0  0
  141.9590  134.9400  164.7690 O   0  5  0  0  0  0
  146.2780  136.9970  169.0170 O   0  0  0  0  0  0
  147.5560  136.1670  167.0690 O   0  0  0  0  0  0
  127.8320  136.9390  168.3990 S   0  0  0  0  0  0
  146.4570  136.9140  167.5990 S   0  0  0  0  0  0
  135.0676  136.7198  167.0666 H   0  0  0  0  0  0
  145.2521  135.5569  166.2502 H   0  0  0  0  0  0
  133.3146  138.7118  166.3715 H   0  0  0  0  0  0
  137.3993  138.7652  168.6327 H   0  0  0  0  0  0
  136.9200  138.0781  167.0938 H   0  0  0  0  0  0
  140.5478  135.7292  166.7356 H   0  0  0  0  0  0
  145.6836  142.7996  165.0186 H   0  0  0  0  0  0
  147.2824  142.5245  164.4346 H   0  0  0  0  0  0
  148.2958  143.4780  166.4105 H   0  0  0  0  0  0
  146.7989  143.4374  167.2926 H   0  0  0  0  0  0
  147.0304  147.0421  166.4857 H   0  0  0  0  0  0
  146.7123  145.8710  167.7874 H   0  0  0  0  0  0
  148.3418  145.9978  167.0832 H   0  0  0  0  0  0
  145.3581  139.3856  168.5291 H   0  0  0  0  0  0
  142.1022  138.5027  169.5973 H   0  0  0  0  0  0
  128.6154  138.4757  166.9630 H   0  0  0  0  0  0
  125.3799  134.6718  164.8643 H   0  0  0  0  0  0
  125.8867  136.5950  166.3167 H   0  0  0  0  0  0
  147.7680  137.9873  165.2943 H   0  0  0  0  0  0
  147.8646  140.2641  164.3833 H   0  0  0  0  0  0
  145.8506  145.0887  165.6038 H   0  0  0  0  0  0
  147.4447  145.2128  164.9149 H   0  0  0  0  0  0
  145.4530  141.6608  167.6164 H   0  0  0  0  0  0
  144.3854  137.9843  168.8796 H   0  0  0  0  0  0
  132.6792  135.6395  169.2693 H   0  0  0  0  0  0
  130.2509  135.9824  169.1186 H   0  0  0  0  0  0
  128.8370  134.2604  168.3459 H   0  0  0  0  0  0
  128.3074  132.3435  166.8728 H   0  0  0  0  0  0
  126.5719  132.5899  163.7965 H   0  0  0  0  0  0
  125.4916  131.9315  164.9363 H   0  0  0  0  0  0
  128.4670  131.3266  165.0938 H   0  0  0  0  0  0
  127.4203  130.4374  164.0386 H   0  0  0  0  0  0
  125.9852  129.8638  166.0522 H   0  0  0  0  0  0
  127.1848  130.6267  167.0588 H   0  0  0  0  0  0
  127.5230  128.2014  166.9866 H   0  0  0  0  0  0
  127.6789  128.2621  165.2149 H   0  0  0  0  0  0
  128.9045  129.0415  166.2433 H   0  0  0  0  0  0
  136.8858  135.8094  168.1460 H   0  0  0  0  0  0
  137.2973  136.5367  169.6859 H   0  0  0  0  0  0
  139.1098  137.4735  166.7413 H   0  0  0  0  0  0
  1  6  1  0  0  0
  1  7  1  0  0  0
  1 55  1  0  0  0
  2 25  1  0  0  0
  2 54  1  0  0  0
  2 56  1  0  0  0
  3  4  1  0  0  0
  3  5  1  0  0  0
  3 33  2  0  0  0
  4 45  2  0  0  0
  4 46  1  0  0  0
  5  6  2  0  0  0
  5 57  1  0  0  0
  6 32  1  0  0  0
  7 42  1  0  0  0
  7 47  2  0  0  0
  8 42  1  0  0  0
  8 43  1  0  0  0
  8 58  1  0  0  0
  8 59  1  0  0  0
  9 23  1  0  0  0
  9 24  2  0  0  0
  9 60  1  0  0  0
 10 24  1  0  0  0
 10 49  2  0  0  0
 10 50  1  0  0  0
 11 16  1  0  0  0
 11 26  2  0  0  0
 11 54  1  0  0  0
 12 13  1  0  0  0
 12 27  2  0  0  0
 12 30  1  0  0  0
 13 14  1  0  0  0
 13 61  1  0  0  0
 13 62  1  0  0  0
 14 29  1  0  0  0
 14 63  1  0  0  0
 14 64  1  0  0  0
 15 29  1  0  0  0
 15 65  1  0  0  0
 15 66  1  0  0  0
 15 67  1  0  0  0
 16 30  2  0  0  0
 16 68  1  0  0  0
 17 23  2  0  0  0
 17 31  1  0  0  0
 17 69  1  0  0  0
 18 33  1  0  0  0
 18 53  1  0  0  0
 18 70  1  0  0  0
 19 21  1  0  0  0
 19 37  2  0  0  0
 19 71  1  0  0  0
 20 53  2  0  0  0
 21 28  2  0  0  0
 21 72  1  0  0  0
 22 23  1  0  0  0
 22 43  1  0  0  0
 22 48  2  0  0  0
 24 25  1  0  0  0
 25 31  2  0  0  0
 26 27  1  0  0  0
 26 73  1  0  0  0
 27 74  1  0  0  0
 28 35  1  0  0  0
 28 53  1  0  0  0
 29 75  1  0  0  0
 29 76  1  0  0  0
 30 77  1  0  0  0
 31 78  1  0  0  0
 32 34  2  0  0  0
 32 79  1  0  0  0
 33 34  1  0  0  0
 34 80  1  0  0  0
 35 36  2  0  0  0
 35 81  1  0  0  0
 36 37  1  0  0  0
 36 82  1  0  0  0
 37 38  1  0  0  0
 38 39  1  0  0  0
 38 83  1  0  0  0
 38 84  1  0  0  0
 39 40  1  0  0  0
 39 85  1  0  0  0
 39 86  1  0  0  0
 40 41  1  0  0  0
 40 87  1  0  0  0
 40 88  1  0  0  0
 41 89  1  0  0  0
 41 90  1  0  0  0
 41 91  1  0  0  0
 42 92  1  0  0  0
 42 93  1  0  0  0
 43 94  1  0  0  0
 44 53  2  0  0  0
 51 54  2  0  0  0
 52 54  2  0  0  0
M  CHG  2  46  -1  50  -1
M  END
> <s_m_entry_id>
5

> <s_m_entry_name>
8gk7.1_ligand

> <s_m_subgroup_title>
8GK7 - hbond-opt_split_by_structure

> <s_m_subgroupid>
8GK7 - hbond-opt_split_by_structure

> <b_m_subgroup_collapsed>
0

$$$$
